34
	Energy:      53.0698601
C         -0.78929        1.16056        0.14289
C          0.59131        1.35172        0.19352
C          1.48154        0.29756       -0.09165
C          0.94816       -0.95682       -0.45022
C         -0.44059       -1.14305       -0.50044
C         -1.30657       -0.08735       -0.20086
H         -2.37860       -0.23267       -0.23795
H         -1.45577        1.98245        0.37281
H          0.97228        2.32898        0.46648
H          1.58664       -1.79107       -0.70088
H         -0.84934       -2.10712       -0.77332
C          2.96359        0.61385        0.00571
C          4.01625       -0.52502       -0.06344
O          3.26156        1.55164       -1.00192
H          3.11314        1.07052        1.01617
H          3.41897        2.42892       -0.56501
O          5.23715        0.12549        0.04486
C          6.51694       -0.29210       -0.13042
C          7.52937        0.59212        0.26239
C          8.87437        0.24735        0.11623
C          6.86675       -1.53395       -0.69118
C          8.21881       -1.87928       -0.83313
C          9.21952       -0.98998       -0.42826
H          6.11353       -2.23268       -1.02318
H          7.27045        1.55467        0.68611
H          9.64525        0.94140        0.42616
H          8.49258       -2.83526       -1.25950
H         10.26318       -1.25588       -0.53924
C          3.83535       -1.52108        1.11324
H          3.93739       -1.04080       -1.04632
O          4.80168       -2.53496        1.09544
H          2.82732       -1.98378        1.12770
H          3.92596       -0.97840        2.07720
H          4.47589       -3.23184        0.46723
