
! Generated by mosdef_cassandra version 0.3.1 on 2022-09-15 19:59:12.951185

# Run_Name
gcmc.out
!------------------------------------------------------------------------------

# Sim_Type
gcmc
!------------------------------------------------------------------------------

# Nbr_Species
1
!------------------------------------------------------------------------------

# VDW_Style
lj cut_tail 14.0
!------------------------------------------------------------------------------

# Charge_Style
none
!------------------------------------------------------------------------------

# Mixing_Rule
lb

!------------------------------------------------------------------------------

# Seed_Info
60902632 54609143
!------------------------------------------------------------------------------

# Rcutoff_Low
1.0
!------------------------------------------------------------------------------

# Pair_Energy
true
!------------------------------------------------------------------------------

# Molecule_Files
species1.mcf 2064
!------------------------------------------------------------------------------

# Box_Info
1
cubic
30.0

!------------------------------------------------------------------------------

# Temperature_Info
100.0
!------------------------------------------------------------------------------

# Chemical_Potential_Info
-9.5 
!------------------------------------------------------------------------------

# Move_Probability_Info

# Prob_Translation
0.8
2.0 
!------------------------------------------------------------------------------

# Prob_Insertion
0.1
cbmc 
!------------------------------------------------------------------------------

# Prob_Deletion
0.1

!------------------------------------------------------------------------------

# Done_Probability_Info
!------------------------------------------------------------------------------

# CBMC_Info
kappa_ins 10
kappa_dih 10
rcut_cbmc 6.0
!------------------------------------------------------------------------------

# Start_Type
make_config 64
!------------------------------------------------------------------------------

# Run_Type
equilibration 1000 
!------------------------------------------------------------------------------

# Simulation_Length_Info
units steps
prop_freq 64
coord_freq 5000
run 64000
!------------------------------------------------------------------------------

# Property_Info 1
energy_total
energy_intra
energy_inter
enthalpy
pressure
volume
nmols
mass_density

# Fragment_Files
species1/frag1/frag1.dat  1
!---------------------------------------------------------one line per fragment

END
