43
	Energy:      27.0116817
C         -4.70747       -0.05798       -1.03976
C         -5.82442       -0.77983       -0.62385
C         -3.46100       -0.67469       -1.09594
C         -3.33507       -2.01149       -0.71962
C         -4.45201       -2.74242       -0.31425
C         -5.71697       -2.12397       -0.26375
H         -4.80973        0.98703       -1.32003
H         -2.58982       -0.11138       -1.41907
O         -2.11067       -2.65762       -0.75924
O         -4.22520       -4.04576        0.02034
H         -6.79446       -0.29027       -0.58428
O         -6.90148       -2.74417        0.12018
H         -3.25766       -4.16561       -0.08725
C         -7.04935       -4.15194        0.41893
H         -8.09896       -4.35717        0.64310
H         -6.43655       -4.40821        1.28745
H         -6.73917       -4.74309       -0.44717
C         -0.91846       -2.17674       -0.24559
C          0.24780       -2.63339       -0.85452
C          1.49399       -2.24019       -0.37957
C          1.58791       -1.38292        0.71628
C          0.42143       -0.92310        1.33140
C         -0.83780       -1.32601        0.87127
O         -1.99790       -0.91491        1.51293
C          2.95564       -0.94721        1.22441
H          0.50709       -0.25392        2.18208
H          0.18360       -3.30659       -1.70601
H          2.39191       -2.60802       -0.87095
C         -2.02535       -0.12863        2.72654
H         -3.06697        0.02505        3.02109
H         -1.55310        0.84091        2.54608
H         -1.49867       -0.66404        3.52142
H          3.73622       -1.47211        0.66643
C          3.17803       -1.18450        2.74561
H          3.06885        0.11560        0.99703
O          2.80650       -2.51455        3.04384
H          2.54572       -0.49936        3.31744
C          4.64571       -0.99328        3.16500
H          5.26181       -1.80192        2.76052
H          4.73963       -0.97466        4.25438
O          5.06234        0.23885        2.61079
H          2.09471       -2.69374        2.41382
H          4.49566        0.29802        1.81655
