43
	Energy:      17.8414646
C         -6.24848       -1.44290        0.00550
C         -6.26628       -0.06685        0.21663
C         -5.10083        0.61884        0.54530
C         -3.90582       -0.08298        0.68185
C         -3.87205       -1.46469        0.46412
C         -5.04532       -2.13966        0.12311
O         -7.45477       -2.06592       -0.28312
O         -7.46101        0.56939        0.14558
H         -5.12899        1.69053        0.72652
H         -3.00850        0.44952        0.98654
C         -2.62652       -2.28779        0.75010
H         -5.01763       -3.21684       -0.01025
H         -8.10102       -0.15846       -0.00000
C         -7.64837       -3.49577       -0.18741
H         -7.00410       -4.00419       -0.90958
H         -7.41248       -3.82685        0.82798
H         -8.69376       -3.72470       -0.41117
C         -1.27715       -1.63043        0.34088
H         -2.71462       -3.26233        0.26273
O         -2.67912       -2.46716        2.18603
O         -1.36883       -0.98242       -0.94680
C         -0.14020       -2.67849        0.32135
H         -1.02837       -0.86740        1.08510
H         -0.43232       -3.53479       -0.29185
H          0.07582       -3.02400        1.33447
O          1.03829       -2.09563       -0.21997
C         -1.96435       -3.41661        2.88587
H         -1.37571       -1.62303       -1.68469
H          0.72973       -1.37711       -0.79691
C         -1.16383       -3.03035        3.96913
C         -0.44388       -3.99296        4.67426
C         -0.54113       -5.33810        4.32337
C         -1.35366       -5.72440        3.25900
C         -2.06516       -4.76544        2.54090
O         -1.02079       -1.70602        4.33746
H         -1.43412       -6.77471        2.99029
H         -2.70438       -5.07512        1.71862
H          0.19082       -3.69319        5.50470
H          0.01550       -6.08587        4.88268
C         -2.16231       -0.92032        4.75637
H         -2.85297       -0.77847        3.92202
H         -1.81057        0.05626        5.09856
H         -2.67353       -1.43183        5.57627
