43
	Energy:      18.6274889
C         -3.37318       -0.71068        0.42440
C         -4.60403       -1.35367        0.50613
C         -2.29621       -1.32781       -0.21764
C         -2.46150       -2.60279       -0.76025
C         -3.68333       -3.26002       -0.65398
C         -4.75618       -2.64124       -0.01650
O         -5.92866       -3.32095        0.11476
O         -5.64341       -0.71352        1.14358
H         -3.26108        0.26826        0.88128
C         -0.91540       -0.69239       -0.25005
H         -1.62510       -3.10466       -1.24110
H         -3.79174       -4.26224       -1.06135
H         -5.74456       -4.26905       -0.00000
C         -6.53114        0.11429        0.36210
H         -7.30287        0.52503        1.01815
H         -6.99809       -0.49179       -0.41936
H         -5.96224        0.93101       -0.09155
C         -0.88896        0.84837       -0.41745
H         -0.32796       -1.14129       -1.05661
O         -0.29679       -1.00188        0.99441
C         -1.85915        1.38375       -1.47287
C          0.55670        1.31091       -0.70568
H         -1.17270        1.27919        0.54739
H          0.85672        1.00248       -1.71099
H          1.25131        0.87643        0.01900
O          0.60716        2.72875       -0.60155
H         -0.85094       -0.58640        1.68242
H         -0.29460        3.04059       -0.78539
C         -2.70610        2.44945       -1.14884
C         -3.58469        2.97367       -2.10148
C         -3.61920        2.42267       -3.38057
C         -2.78162        1.36012       -3.71236
C         -1.90066        0.84472       -2.76265
H         -2.67125        2.87060       -0.14803
O         -4.43696        4.03515       -1.83512
O         -4.47168        2.95302       -4.29922
H         -2.80932        0.93844       -4.71430
H         -1.24420        0.02247       -3.03660
H         -4.92146        3.70444       -3.85521
C         -4.34019        4.85350       -0.64589
H         -5.09260        5.64489       -0.70121
H         -3.34436        5.30268       -0.59252
H         -4.52520        4.23987        0.23996
