55
	Energy:      33.3522110
C          0.24850        0.22661        1.60805
C         -1.04832       -0.03334        2.05194
C          0.59715        0.00191        0.27178
C         -0.37898       -0.46642       -0.61398
C         -1.67743       -0.74183       -0.16943
C         -2.00584       -0.52831        1.16793
H          0.99414        0.56899        2.32025
C          2.03774        0.13785       -0.23735
O         -3.26089       -0.84451        1.60391
H         -1.30413        0.12436        3.09667
H         -0.09806       -0.66712       -1.64345
O         -2.66147       -1.26934       -0.99479
H         -3.75834       -1.21576        0.84089
C         -2.41612       -1.65578       -2.36703
H         -3.33838       -2.06359       -2.78920
H         -1.63293       -2.41875       -2.39716
H         -2.10890       -0.77952       -2.94447
C          2.84507        1.39450        0.19959
H          1.99287        0.20449       -1.32773
O          2.79953       -1.07757        0.03160
O          3.33471        1.27087        1.55607
C          2.04054        2.70511        0.09013
O          2.93832        3.82133        0.06921
H          1.36302        2.79562        0.94308
H          1.45215        2.70652       -0.83111
H          3.76218        3.58072        0.55569
C          4.61329        0.78387        1.73204
C          5.69261        1.66660        1.59823
C          4.85194       -0.56271        2.06317
C          6.99913        1.21887        1.76630
C          7.23980       -0.11031        2.09458
C          6.17686       -0.99584        2.25359
C          3.72731       -1.53613        2.24525
H          6.38873       -2.03133        2.50877
H          7.83022        1.91007        1.65034
H          8.26087       -0.45801        2.23058
O          5.48214        2.99897        1.30881
C          5.11480        3.89116        2.38480
H          5.90476        3.89350        3.14063
H          4.17458        3.55468        2.83146
H          4.98834        4.89987        1.98251
C          3.67305       -2.28667        3.43179
C          2.67463       -3.23481        3.62094
C          1.73709       -3.47165        2.62395
C          1.78101       -2.74795        1.42917
C          2.75572       -1.75228        1.24425
H          4.40822       -2.13286        4.21810
O          0.88553       -3.01372        0.40132
H          2.63861       -3.80674        4.54477
H          0.98633       -4.23861        2.78818
C         -0.32133       -3.79441        0.57119
H         -0.88244       -3.78355       -0.36667
H         -0.93312       -3.35330        1.36331
H         -0.06060       -4.82517        0.82497
H          3.70859        1.47786       -0.46853
