13
Lattice="18.464 0.0 0.0 0.0 15.22 0.0 0.0 0.0 13.715" Properties=species:S:1:pos:R:3:forces:R:3 FurfurylAlcohol=T energy=-1740.3585898758 stress="0.00023428819716823 1.7858131800039e-05 4.0532330748715e-06 1.7858131800039e-05 0.00024181466151336 -1.0560692945385e-05 4.0532330748715e-06 -1.0560692945385e-05 0.00026215241918317" free_energy=-1740.3585898758 pbc="T T T"
C        7.07630576       8.13918092       6.88095788      -0.00476949       0.02072291       0.00241475
H        6.18047640       8.70584059       7.09653683      -0.00358812      -0.00717101       0.00339630
C        7.32045714       6.84871781       6.50961753       0.00122840      -0.00724874       0.01439480
C        8.74606936       6.72400601       6.37452770       0.00006758      -0.00718664       0.01713342
C        9.26913979       7.94934275       6.67789990       0.00430076       0.00619261      -0.00251994
O        8.26315002       8.83777327       6.99276895       0.00164342       0.00789357      -0.02195865
H        6.57524196       6.07451374       6.36171084       0.01166918       0.00911338      -0.02516392
H        9.32215187       5.84851024       6.09751062      -0.00902402       0.00223269       0.00361232
C       10.66218085       8.48402784       6.73996818       0.00036409      -0.00495626      -0.00162544
H       10.80196630       9.27147000       5.97513215      -0.02841656      -0.00063093      -0.00459187
O       11.55275374       7.38019231       6.51659575       0.01351230       0.00443831       0.00686428
H       12.45990574       7.72384142       6.55990485       0.01990672      -0.00454227      -0.01425579
H       10.83323512       8.95260213       7.72735834      -0.01589995      -0.00851145       0.00369078
