22
	Energy:       6.2977885
C          0.07589        0.11266       -1.01930
C         -1.01570       -0.44101       -0.35482
C         -0.99636       -0.56240        1.03149
C          0.11466       -0.13034        1.75146
C          1.21513        0.42235        1.09267
C          1.19330        0.55059       -0.30516
C          2.38134        1.12051       -1.07347
C          3.37832        1.89110       -0.18547
H          2.02718        1.78335       -1.86681
H          2.90639        0.29447       -1.55936
C          3.68837        1.07997        1.08477
H          2.95550        2.86032        0.09136
H          4.29849        2.08019       -0.74335
C          2.40379        0.90347        1.91707
H          4.44711        1.59205        1.68115
H          4.08931        0.10106        0.80923
H          2.14357        1.86059        2.37590
H          2.60108        0.20209        2.73143
H          0.11967       -0.22501        2.83486
H         -1.88121       -0.77991       -0.91875
H         -1.84794       -0.99373        1.55197
H          0.05477        0.19825       -2.10326
