6
	Energy:       2.1934257
C         -3.13877        1.05776        0.00184
O         -1.71178        1.03207        0.00262
H         -3.52372        0.25118        0.63151
H         -3.51063        0.92818       -1.01804
H         -3.48936        2.01675        0.39264
H         -1.41709        0.17176       -0.34811
