35
	Energy:      52.3465118
C         -0.88759        0.93850        0.15165
C          0.47890        1.21885        0.19966
C          1.43354        0.22315       -0.08163
C          0.97901       -1.06252       -0.44001
C         -0.39312       -1.34052       -0.48757
C         -1.32977       -0.34148       -0.18573
H         -1.60256        1.71848        0.38288
H          0.79700        2.21853        0.47103
H          1.66807       -1.85620       -0.68922
H         -0.72780       -2.33397       -0.75809
C          2.89833        0.61959        0.02116
C          3.98408       -0.48790       -0.04025
O          3.15551        1.56219       -0.99259
H          3.02112        1.09035        1.02873
H          3.41275        2.41629       -0.55657
O          5.20124        0.17776        0.04433
C          6.47227       -0.25951       -0.13999
C          7.50989        0.59234        0.26425
C          8.84516        0.21478        0.10993
C          6.79459       -1.50151       -0.72174
C          8.13510       -1.87855       -0.87272
C          9.15893       -1.02229       -0.45552
H          6.02381       -2.17719       -1.06273
H          7.27652        1.55378        0.70538
H          9.63559        0.88199        0.42997
H          8.38319       -2.83459       -1.31520
H         10.19463       -1.31406       -0.57290
C          3.83461       -1.46644        1.15634
H          3.90320       -1.01774       -1.01484
O          4.79488       -2.48480        1.12453
H          2.82701       -1.92680        1.21182
H          3.95392       -0.90807        2.10847
H          4.45666       -3.17501        0.49520
O         -2.65335       -0.59761       -0.21692
H         -3.00477       -1.47249       -0.43418
